20
header
 C     24.458344      25.411366  26.702234
 C     25.615150      25.849335  25.784368
 C     26.131635      27.278961  26.018865
 C     27.233268      27.704667  25.044029
 O     28.465998      26.907254  25.241425
 H     23.960314      24.536895  26.248059
 H     23.699579      26.210099  26.760692
 H     25.278378      25.779226  24.735592
 H     26.442229      25.123894  25.890511
 H     26.521685      27.396310  27.041347
 H     25.286582      27.982243  25.927778
 H     26.837876      27.658462  24.008469
 H     27.492594      28.755962  25.239518
 H     29.232237      27.297072  24.685489
 H     28.329870      25.948921  24.907633
 C     24.851472      24.978546  28.120835
 O     25.353759      26.017420  28.968433
 H     25.577457      24.142893  28.061637
 H     23.959721      24.598966  28.641629
 H     26.224048      26.276475  28.636769
